%nprocshared=10
%mem=30GB
%chk=5cb_opt.chk
#p B3LYP/6-31+G(d,p) EmpiricalDispersion=GD3BJ SCRF=(IEFPCM,Solvent=Water) Opt=(Tight)

5CB optimization in water (B3LYP-D3BJ/6-31+G(d,p))

0 1
C        0.000000      0.000000      0.000000
C        1.325000      0.756000      0.172000
C        2.537000     -0.170000     -0.015000
C        3.869000      0.571000      0.199000
C        5.078000     -0.362000      0.014000
C        6.443000      0.221000      0.321000
C        6.680000      1.530000      0.498000
C        7.912000      1.990000      0.777000
C        9.000000      1.196000      0.901000
C        8.732000     -0.115000      0.712000
C        7.507000     -0.589000      0.434000
H        7.369000     -1.676000      0.295000
H        9.500000     -0.900000      0.776000
C       10.244000      1.672000      1.188000
C       10.504000      2.984000      1.396000
C       11.726000      3.464000      1.681000
C       12.776000      2.638000      1.774000
C       12.564000      1.331000      1.573000
C       11.333000      0.875000      1.291000
H       11.295000     -0.214000      1.147000
H       13.409000      0.622000      1.640000
C       13.979000      3.094000      2.051000
N       15.038000      3.495000      2.294000
H       11.864000      4.549000      1.840000
H        9.730000      3.763000      1.350000
H        7.952000      3.082000      0.895000
H        5.858000      2.259000      0.416000
H        4.930000     -1.250000      0.672000
H        5.094000     -0.729000     -1.039000
H        3.927000      1.417000     -0.527000
H        3.882000      0.994000      1.232000
H        2.464000     -1.016000      0.709000
H        2.514000     -0.607000     -1.041000
H        1.373000      1.589000     -0.569000
H        1.356000      1.214000      1.189000
H       -0.098000     -0.816000      0.753000
H       -0.871000      0.683000      0.128000
H       -0.073000     -0.457000     -1.014000
  
